/config,noeldb,1     ! force off writing results to database
*get,_wallstrt,active,,time,wall
/com,--- Data in consistent NMM units. See Solving Units in the help system for more information.
/units,MPA
/nopr
/wb,file,start              !  signify a WB generated input file
/prep7
! Turn off shape checking because checks already performed inside WB mesher.
! See help system for more information.
SHPP,OFF,,NOWARN
/nolist
etcon,set             ! allow ANSYS to choose best KEYOP's for 180x elements
/com,*********** Nodes for the whole assembly ***********
nblock,3,,650
(1i9,3e20.9e3)
        1    2.217276676E+000    2.675855009E+001    5.000000000E+000
        2    4.419407105E+000    2.648405482E+001    5.000000000E+000
        3    6.591348502E+000    2.602864660E+001    5.000000000E+000
        4    8.718264305E+000    2.539543633E+001    5.000000000E+000
        5    1.078562552E+001    2.458874948E+001    5.000000000E+000
        6    1.277930998E+001    2.361409654E+001    5.000000000E+000
        7    1.468569879E+001    2.247813537E+001    5.000000000E+000
        8    1.649176939E+001    2.118862575E+001    5.000000000E+000
        9    1.818518449E+001    1.975437633E+001    5.000000000E+000
       10    1.975437633E+001    1.818518449E+001    5.000000000E+000
       11    2.118862575E+001    1.649176939E+001    5.000000000E+000
       12    2.247813537E+001    1.468569879E+001    5.000000000E+000
       13    2.361409654E+001    1.277930998E+001    5.000000000E+000
       14    2.458874948E+001    1.078562552E+001    5.000000000E+000
       15    2.539543633E+001    8.718264305E+000    5.000000000E+000
       16    2.602864660E+001    6.591348502E+000    5.000000000E+000
       17    2.648405482E+001    4.419407105E+000    5.000000000E+000
       18    2.675855009E+001    2.217276676E+000    5.000000000E+000
       19    2.675855009E+001    2.217276676E+000    0.000000000E+000
       20    2.648405482E+001    4.419407105E+000    0.000000000E+000
! ... 572 like lines cut
/wb,elem,start            !  set before creation of elements
/com,*********** Elements for Body 1 "Solid" ***********
et,1,186
keyo,1,2,1          ! set full integration on SOLID186
eblock,19,solid,,76
(19i9)
        1        1        1        1        0        0        0        0       20        0        1        1      137      136       97       36      138      134      133
      185      527      468      184      325      525      523      324      182      528      524      467
        1        1        1        1        0        0        0        0       20        0        2        1       97      136      137       37       96       95       76
      184      468      527      185      330      463      425      329      183      465      464      426
        1        1        1        1        0        0        0        0       20        0        3        1      158      140      137       36      177      139      138
      186      533      529      185      326      532      530      325      182      569      531      528
        1        1        1        1        0        0        0        0       20        0        4        1      137      140      158       37       76       75       74
      185      529      533      186      329      423      421      328      183      426      424      422
        1        1        1        1        0        0        0        0       20        0        5        1       97       98        2       36      133      132       35
      184      466      190      181      324      522      322      321      182      467      470      188
        1        1        1        1        0        0        0        0       20        0        6        1        2       98       97       37       38       94       96
      181      190      466      184      327      333      461      330      183      189      462      465
        1        1        1        1        0        0        0        0       20        0        7        1        2      157      158       36       35      176      177
      181      191      567      186      321      323      589      326      182      188      568      569
        1        1        1        1        0        0        0        0       20        0        8        1      158      157        2       37       74       73       38
      186      567      191      181      328      419      332      327      183      422      420      189
        1        1        1        1        0        0        0        0       20        0        9        2       98       99        3       35      132      131       34
      190      469      195      187      322      521      319      318      188      470      472      193
        1        1        1        1        0        0        0        0       20        0       10        2        3       99       98       38       39       93       94
      187      195      469      190      331      336      459      333      189      194      460      462
! ... 133 like lines cut
!Material Id = {D6EA3A72-F6E7-4529-A9C6-F4521793F507}
/wb,elem,end               !  done creating elements
/com,*********** Send User Defined Coordinate System(s) ***********
local,12,1,0.,0.,0.,-0.,0.,0.
CYL1 = 12      ! Set Coordinate System ID to User Specified Name
csys,0
toffst,273.15,  ! Temperature offset from absolute zero
/com,*********** Set Reference Temperature ***********
tref,22.
/wb,mat,start              !  starting to send materials
/com,*********** Send Materials ***********
MP,DENS,1,7.85e-09,	! tonne mm^-3
MP,ALPX,1,1.2e-05,	! C^-1
MP,C,1,434000000,	! mm^2 s^-2 C^-1
MP,KXX,1,60.5,	! tonne mm s^-3 C^-1
MP,RSVX,1,0.00017,	! ohm mm
MP,EX,1,200000,	! tonne s^-2 mm^-1
MP,NUXY,1,0.3,
MP,MURX,1,10000,

/wb,mat,end                !  done sending materials
!************************* Model Summary ********************
!Solid,	Structural Steel,	matid,	1
!************************* End Model Summary ********************
! get the diagonal of the bounding box. Needed later for other things
*get,_xmin,node,,mnloc,x
*get,_ymin,node,,mnloc,y
*get,_zmin,node,,mnloc,z
*get,_xmax,node,,mxloc,x
*get,_ymax,node,,mxloc,y
*get,_zmax,node,,mxloc,z
_ASMDIAG=(_xmax-_xmin)*(_xmax-_xmin)+(_ymax-_ymin)*(_ymax-_ymin)+(_zmax-_zmin)*(_zmax-_zmin)
_ASMDIAG=SQRT(_ASMDIAG)
/wb,contact,start          !  starting to send contact
/wb,contact,end            !  done creating contacts
/com,*********** Send Named Selection as Node Component ***********
CMBLOCK,LEFT    ,NODE,       21
(8i10)
        75        76        95       134       136       137       138       139
       140       423       424       425       426       464       524       525
       527       528       529       530       531
/com,*********** Send Named Selection as Node Component ***********
CMBLOCK,RIGHT   ,NODE,       21
(8i10)
        55        56        77       116       135       160       178       179
       180       382       383       384       386       428       505       506
       526       572       573       590       591
/com,*********** Send Named Selection as Node Component ***********
CMBLOCK,DIRICHLET,NODE,      157
(8i10)
        56        57        58        59        60        61        62        63
        64        65        66        67        68        69        70        71
        72        73        74        75       139       140       141       142
       143       144       145       146       147       148       149       150
       151       152       153       154       155       156       157       158
       159       160       161       162       163       164       165       166
       167       168       169       170       171       172       173       174
       175       176       177       178       385       386       387       388
       389       390       391       392       393       394       395       396
       397       398       399       400       401       402       403       404
       405       406       407       408       409       410       411       412
       413       414       415       416       417       418       419       420
       421       422       424       531       532       533       534       535
       536       537       538       539       540       541       542       543
       544       545       546       547       548       549       550       551
       552       553       554       555       556       557       558       559
       560       561       562       563       564       565       566       567
       568       569       570       571       572       574       575       576
       577       578       579       580       581       582       583       584
       585       586       587       588       589
/golist
/wb,load,start             !  starting to send loads
/com,*********** Fixed Supports ***********
CMBLOCK,_FIXEDSU,NODE,      157
(8i10)
        56        57        58        59        60        61        62        63
        64        65        66        67        68        69        70        71
        72        73        74        75       139       140       141       142
       143       144       145       146       147       148       149       150
       151       152       153       154       155       156       157       158
       159       160       161       162       163       164       165       166
       167       168       169       170       171       172       173       174
       175       176       177       178       385       386       387       388
       389       390       391       392       393       394       395       396
       397       398       399       400       401       402       403       404
       405       406       407       408       409       410       411       412
       413       414       415       416       417       418       419       420
       421       422       424       531       532       533       534       535
       536       537       538       539       540       541       542       543
       544       545       546       547       548       549       550       551
       552       553       554       555       556       557       558       559
       560       561       562       563       564       565       566       567
       568       569       570       571       572       574       575       576
       577       578       579       580       581       582       583       584
       585       586       587       588       589
cmsel,s,_FIXEDSU
d,all,all
nsel,all
/com,*********** Node Rotations ***********
nmod,76,,,,90.,0.,0.
nmod,95,,,,90.,0.,0.
nmod,134,,,,90.,0.,0.
nmod,136,,,,90.,0.,0.
nmod,137,,,,90.,0.,0.
nmod,138,,,,90.,0.,0.
nmod,423,,,,90.,0.,0.
nmod,425,,,,90.,0.,0.
nmod,426,,,,90.,0.,0.
nmod,464,,,,90.,0.,0.
nmod,524,,,,90.,0.,0.
nmod,525,,,,90.,0.,0.
nmod,527,,,,90.,0.,0.
nmod,528,,,,90.,0.,0.
nmod,529,,,,90.,0.,0.
nmod,530,,,,90.,0.,0.
/com,*********** Create Periodic/Cyclic Symmetry ***********
CYCOPT,USRROT,1
CYCOPT,STATUS
*DIM,_CYCLICMAP,ARRAY,2,21
*SET,_CYCLICMAP(1,1),55,76
*SET,_CYCLICMAP(1,2),56,75
*SET,_CYCLICMAP(1,3),77,95
*SET,_CYCLICMAP(1,4),116,134
*SET,_CYCLICMAP(1,5),135,136
*SET,_CYCLICMAP(1,6),160,139
*SET,_CYCLICMAP(1,7),178,140
*SET,_CYCLICMAP(1,8),179,137
*SET,_CYCLICMAP(1,9),180,138
*SET,_CYCLICMAP(1,10),382,423
*SET,_CYCLICMAP(1,11),383,425
*SET,_CYCLICMAP(1,12),384,426
*SET,_CYCLICMAP(1,13),386,424
*SET,_CYCLICMAP(1,14),428,464
*SET,_CYCLICMAP(1,15),505,524
*SET,_CYCLICMAP(1,16),506,525
*SET,_CYCLICMAP(1,17),526,527
*SET,_CYCLICMAP(1,18),572,531
*SET,_CYCLICMAP(1,19),573,530
*SET,_CYCLICMAP(1,20),590,529
*SET,_CYCLICMAP(1,21),591,528
CYCLIC,4,,12,,,_CYCLICMAP
/gst,on,on
fini
*get,_numnode,node,0,count
*get,_numelem,elem,0,count
*get, _MAXELEMNUM, elem, 0, NUM, MAX
*get, _MAXNODENUM, node, 0, NUM, MAX
*get, _MAXELEMTYPE, etyp, 0, NUM, MAX
*get, _MAXREALCONST, real, 0, NUM, MAX
/go
/wb,load,end               !  done creating loads
/com,--- Number of total nodes = %_numnode%
/com,--- Number of contact elements = 0
/com,--- Number of spring elements = 0
/com,--- Number of bearing elements = 0
/com,--- Number of solid elements = 76
/com,--- Number of condensed parts = 0
/com,--- Number of total elements = %_numelem%
*get,_wallbsol,active,,time,wall

